test_1EWL
     RDKit          3D

 61 61  0  0  0  0  0  0  0  0999 V2000
    4.0651   11.7951    8.0724 O   0  0  0  0  0  0  0  0  0  0  0  0
    5.2045   11.5600    7.3795 C   0  0  0  0  0  0  0  0  0  0  0  0
    5.3558   11.9345    6.2239 O   0  0  0  0  0  0  0  0  0  0  0  0
    6.2876   10.8351    8.1674 C   0  0  2  0  0  0  0  0  0  0  0  0
    5.5563    9.2770    8.8640 S   0  0  0  0  0  0  0  0  0  0  0  0
    7.0395    8.4587    9.5424 C   0  0  0  0  0  0  0  0  0  0  0  0
    8.0022    7.9742    8.4716 C   0  0  0  0  0  0  0  0  0  0  0  0
    6.8471   11.7826    9.2327 C   0  0  2  0  0  0  0  0  0  0  0  0
    5.8288   12.1027   10.1951 O   0  0  0  0  0  0  0  0  0  0  0  0
    7.4150   13.0706    8.6133 C   0  0  0  0  0  0  0  0  0  0  0  0
    6.9681   14.1696    8.9377 O   0  0  0  0  0  0  0  0  0  0  0  0
    8.4753   12.9115    7.7620 N   0  0  0  0  0  0  0  0  0  0  0  0
    9.1440   14.0457    7.1292 C   0  0  1  0  0  0  0  0  0  0  0  0
   10.5901   13.6200    6.8078 C   0  0  0  0  0  0  0  0  0  0  0  0
   10.9470   12.4435    6.8816 O   0  0  0  0  0  0  0  0  0  0  0  0
   11.4251   14.6465    6.4286 N   0  0  0  0  0  0  0  0  0  0  0  0
   12.8123   14.4222    6.0742 C   0  0  0  0  0  0  0  0  0  0  0  0
   13.7341   14.3866    7.2956 C   0  0  0  0  0  0  0  0  0  0  0  0
   13.7371   15.6717    8.1478 C   0  0  0  0  0  0  0  0  0  0  0  0
   14.1824   16.8988    7.3523 C   0  0  0  0  0  0  0  0  0  0  0  0
   14.6511   15.4838    9.3627 C   0  0  0  0  0  0  0  0  0  0  0  0
    8.4010   14.5469    5.8841 C   0  0  0  0  0  0  0  0  0  0  0  0
    8.3389   13.5194    4.7465 C   0  0  0  0  0  0  0  0  0  0  0  0
    7.6661   14.0965    3.5255 C   0  0  0  0  0  0  0  0  0  0  0  0
    8.4237   14.6938    2.5088 C   0  0  0  0  0  0  0  0  0  0  0  0
    7.7954   15.2444    1.3906 C   0  0  0  0  0  0  0  0  0  0  0  0
    6.4062   15.2068    1.2806 C   0  0  0  0  0  0  0  0  0  0  0  0
    5.6442   14.6190    2.2885 C   0  0  0  0  0  0  0  0  0  0  0  0
    6.2703   14.0677    3.4070 C   0  0  0  0  0  0  0  0  0  0  0  0
    4.1461   11.4668    8.9982 H   0  0  0  0  0  0  0  0  0  0  0  0
    7.0575   10.5461    7.4450 H   0  0  0  0  0  0  0  0  0  0  0  0
    7.5511    9.1298   10.2350 H   0  0  0  0  0  0  0  0  0  0  0  0
    6.7067    7.6006   10.1370 H   0  0  0  0  0  0  0  0  0  0  0  0
    7.5190    7.2755    7.7812 R   0  0  0  0  0  1  0  0  0  0  0  0
    8.8330    7.4505    8.9566 H   0  0  0  0  0  0  0  0  0  0  0  0
    8.4295    8.8006    7.8969 R   0  0  0  0  0  1  0  0  0  0  0  0
    7.6713   11.3139    9.7807 H   0  0  0  0  0  0  0  0  0  0  0  0
    5.9520   13.0540   10.4113 H   0  0  0  0  0  0  0  0  0  0  0  0
    8.9124   12.0066    7.6068 H   0  0  0  0  0  0  0  0  0  0  0  0
    9.1945   14.8581    7.8654 H   0  0  0  0  0  0  0  0  0  0  0  0
   11.0751   15.5972    6.4140 H   0  0  0  0  0  0  0  0  0  0  0  0
   12.8869   13.4696    5.5368 H   0  0  0  0  0  0  0  0  0  0  0  0
   13.1060   15.2120    5.3763 H   0  0  0  0  0  0  0  0  0  0  0  0
   14.7557   14.1756    6.9513 H   0  0  0  0  0  0  0  0  0  0  0  0
   13.4409   13.5432    7.9341 H   0  0  0  0  0  0  0  0  0  0  0  0
   12.7220   15.8560    8.5231 H   0  0  0  0  0  0  0  0  0  0  0  0
   15.1607   16.7366    6.8858 H   0  0  0  0  0  0  0  0  0  0  0  0
   13.4633   17.1436    6.5641 H   0  0  0  0  0  0  0  0  0  0  0  0
   14.2598   17.7771    8.0029 H   0  0  0  0  0  0  0  0  0  0  0  0
   14.3272   14.6290    9.9651 H   0  0  0  0  0  0  0  0  0  0  0  0
   15.6895   15.3109    9.0568 H   0  0  0  0  0  0  0  0  0  0  0  0
   14.6302   16.3698   10.0069 H   0  0  0  0  0  0  0  0  0  0  0  0
    7.3804   14.8396    6.1644 H   0  0  0  0  0  0  0  0  0  0  0  0
    8.8895   15.4593    5.5177 H   0  0  0  0  0  0  0  0  0  0  0  0
    9.3456   13.1845    4.4692 H   0  0  0  0  0  0  0  0  0  0  0  0
    7.8003   12.6195    5.0657 H   0  0  0  0  0  0  0  0  0  0  0  0
    9.5080   14.7313    2.5804 H   0  0  0  0  0  0  0  0  0  0  0  0
    8.3891   15.7024    0.6041 H   0  0  0  0  0  0  0  0  0  0  0  0
    5.9168   15.6342    0.4099 H   0  0  0  0  0  0  0  0  0  0  0  0
    4.5608   14.5869    2.2064 H   0  0  0  0  0  0  0  0  0  0  0  0
    5.6614   13.6121    4.1870 H   0  0  0  0  0  0  0  0  0  0  0  0
 30  1  1  0
  1  2  1  0
  2  3  2  0
  2  4  1  0
  4 31  1  6
  4  5  1  0
  5  6  1  0
  6 32  1  0
  6 33  1  0
  6  7  1  0
  7 34  1  0
  7 35  1  0
  7 36  1  0
  4  8  1  0
  8 37  1  1
  8  9  1  0
  9 38  1  0
  8 10  1  0
 10 11  2  0
 10 12  1  0
 12 39  1  0
 12 13  1  0
 13 40  1  1
 13 14  1  0
 14 15  2  0
 14 16  1  0
 16 41  1  0
 16 17  1  0
 17 42  1  0
 17 43  1  0
 17 18  1  0
 18 44  1  0
 18 45  1  0
 18 19  1  0
 19 46  1  0
 19 20  1  0
 20 47  1  0
 20 48  1  0
 20 49  1  0
 19 21  1  0
 21 50  1  0
 21 51  1  0
 21 52  1  0
 13 22  1  0
 22 53  1  0
 22 54  1  0
 22 23  1  0
 23 55  1  0
 23 56  1  0
 23 24  1  0
 24 25  2  0
 25 57  1  0
 25 26  1  0
 26 58  1  0
 26 27  2  0
 27 59  1  0
 27 28  1  0
 28 60  1  0
 24 29  1  0
 28 29  2  0
 29 61  1  0
M  END
>  <covalent_atom_names>  (1) 
CA,CB,SG,HA,HB3,HB2

>  <covalent_residue_names>  (1) 
CYS,CYS,CYS,CYS,CYS,CYS

>  <covalent_residue_indices>  (1) 
25,25,25,25,25,25

>  <covalent_chain_indices>  (1) 
A,A,A,A,A,A

>  <covalent_atom_indices>  (1) 
6,5,4,34,31,32

>  <ligand_smiles>  (1) 
CCS[C@@H](C(=O)O)[C@H](O)C(=O)N[C@H](CCc1ccccc1)C(=O)NCCC(C)C

>  <ligand_molecule_name>  (1) 
MOL_0_covalent_0

>  <ligand_conf_name>  (1) 
MOL_0_covalent_0_conf_0

>  <conformer_energy>  (1) 
43.61

$$$$
